<configuration>

<input>
<net-file value="network.net.xml"/>
<route-files value="doubleRoutes.rou.xml"/>
</input>

<output>
</output>


</configuration>