<routes>
<vType accel="1.0" decel="4.5" id="standard_car" length="5.0" minGap="2.5" maxSpeed="25" sigma="0.5"/>
<vType accel="1.0" decel="4.5" id="emergency_veh" length="5.0" minGap="2.5" maxSpeed="25" sigma="0.5" guiShape="emergency"/>
<route id="W_N" edges="W2TL TL2N"/>
<route id="W_E" edges="W2TL TL2E"/>
<route id="W_S" edges="W2TL TL2S"/>
<route id="N_W" edges="N2TL TL2W"/>
<route id="N_E" edges="N2TL TL2E"/>
<route id="N_S" edges="N2TL TL2S"/>
<route id="E_W" edges="E2TL TL2W"/>
<route id="E_N" edges="E2TL TL2N"/>
<route id="E_S" edges="E2TL TL2S"/>
<route id="S_W" edges="S2TL TL2W"/>
<route id="S_N" edges="S2TL TL2N"/>
<route id="S_E" edges="S2TL TL2E"/>
<vehicle id="S_N_0" type="standard_car" route="S_N" depart="114" departLane="random" departSpeed="10" />
<vehicle id="W_E_1" type="standard_car" route="W_E" depart="119" departLane="random" departSpeed="10" />
<vehicle id="E_W_2" type="standard_car" route="E_W" depart="124" departLane="random" departSpeed="10" />
<vehicle id="N_E_3" type="standard_car" route="N_E" depart="139" departLane="random" departSpeed="10" />
<vehicle id="E_N_4" type="standard_car" route="E_N" depart="160" departLane="random" departSpeed="10" />
<vehicle id="S_N_5" type="standard_car" route="S_N" depart="174" departLane="random" departSpeed="10" />
<vehicle id="W_E_6" type="standard_car" route="W_E" depart="175" departLane="random" departSpeed="10" />
<vehicle id="N_S_7" type="standard_car" route="N_S" depart="178" departLane="random" departSpeed="10" />
<vehicle id="S_N_8" type="standard_car" route="S_N" depart="184" departLane="random" departSpeed="10" />
<vehicle id="W_E_9" type="standard_car" route="W_E" depart="191" departLane="random" departSpeed="10" />
<vehicle id="S_W_10" type="standard_car" route="S_W" depart="191" departLane="random" departSpeed="10" />
<vehicle id="N_S_11" type="standard_car" route="N_S" depart="201" departLane="random" departSpeed="10" />
<vehicle id="N_S_12" type="standard_car" route="N_S" depart="202" departLane="random" departSpeed="10" />
<vehicle id="N_S_13" type="standard_car" route="N_S" depart="208" departLane="random" departSpeed="10" />
<vehicle id="N_S_14" type="standard_car" route="N_S" depart="216" departLane="random" departSpeed="10" />
<vehicle id="S_N_15" type="standard_car" route="S_N" depart="225" departLane="random" departSpeed="10" />
<vehicle id="W_N_16" type="standard_car" route="W_N" depart="226" departLane="random" departSpeed="10" />
<vehicle id="W_E_17" type="standard_car" route="W_E" depart="227" departLane="random" departSpeed="10" />
<vehicle id="N_S_18" type="standard_car" route="N_S" depart="235" departLane="random" departSpeed="10" />
<vehicle id="N_W_19" type="standard_car" route="N_W" depart="237" departLane="random" departSpeed="10" />
<vehicle id="S_N_20" type="standard_car" route="S_N" depart="240" departLane="random" departSpeed="10" />
<vehicle id="E_W_21" type="standard_car" route="E_W" depart="251" departLane="random" departSpeed="10" />
<vehicle id="E_N_22" type="standard_car" route="E_N" depart="256" departLane="random" departSpeed="10" />
<vehicle id="S_N_23" type="standard_car" route="S_N" depart="261" departLane="random" departSpeed="10" />
<vehicle id="W_S_24" type="standard_car" route="W_S" depart="267" departLane="random" departSpeed="10" />
<vehicle id="S_N_25" type="standard_car" route="S_N" depart="267" departLane="random" departSpeed="10" />
<vehicle id="N_S_26" type="standard_car" route="N_S" depart="267" departLane="random" departSpeed="10" />
<vehicle id="E_W_27" type="standard_car" route="E_W" depart="272" departLane="random" departSpeed="10" />
<vehicle id="W_E_28" type="standard_car" route="W_E" depart="273" departLane="random" departSpeed="10" />
<vehicle id="S_W_29" type="standard_car" route="S_W" depart="273" departLane="random" departSpeed="10" />
<vehicle id="S_N_30" type="standard_car" route="S_N" depart="276" departLane="random" departSpeed="10" />
<vehicle id="E_N_31" type="standard_car" route="E_N" depart="285" departLane="random" departSpeed="10" />
<vehicle id="E_W_32" type="standard_car" route="E_W" depart="293" departLane="random" departSpeed="10" />
<vehicle id="S_E_33" type="standard_car" route="S_E" depart="297" departLane="random" departSpeed="10" />
<vehicle id="W_E_34" type="standard_car" route="W_E" depart="298" departLane="random" departSpeed="10" />
<vehicle id="S_N_35" type="standard_car" route="S_N" depart="308" departLane="random" departSpeed="10" />
<vehicle id="W_E_36" type="standard_car" route="W_E" depart="312" departLane="random" departSpeed="10" />
<vehicle id="N_S_37" type="standard_car" route="N_S" depart="319" departLane="random" departSpeed="10" />
<vehicle id="W_E_38" type="standard_car" route="W_E" depart="322" departLane="random" departSpeed="10" />
<vehicle id="E_N_39" type="standard_car" route="E_N" depart="322" departLane="random" departSpeed="10" />
<vehicle id="W_N_40" type="standard_car" route="W_N" depart="323" departLane="random" departSpeed="10" />
<vehicle id="W_E_41" type="standard_car" route="W_E" depart="325" departLane="random" departSpeed="10" />
<vehicle id="E_W_42" type="standard_car" route="E_W" depart="334" departLane="random" departSpeed="10" />
<vehicle id="N_W_43" type="standard_car" route="N_W" depart="340" departLane="random" departSpeed="10" />
<vehicle id="S_N_44" type="standard_car" route="S_N" depart="340" departLane="random" departSpeed="10" />
<vehicle id="S_N_45" type="standard_car" route="S_N" depart="340" departLane="random" departSpeed="10" />
<vehicle id="W_E_46" type="standard_car" route="W_E" depart="350" departLane="random" departSpeed="10" />
<vehicle id="W_E_47" type="standard_car" route="W_E" depart="359" departLane="random" departSpeed="10" />
<vehicle id="N_E_48" type="standard_car" route="N_E" depart="359" departLane="random" departSpeed="10" />
<vehicle id="W_E_49" type="standard_car" route="W_E" depart="359" departLane="random" departSpeed="10" />
<vehicle id="S_N_50" type="standard_car" route="S_N" depart="359" departLane="random" departSpeed="10" />
<vehicle id="N_S_51" type="standard_car" route="N_S" depart="362" departLane="random" departSpeed="10" />
<vehicle id="E_W_52" type="standard_car" route="E_W" depart="363" departLane="random" departSpeed="10" />
<vehicle id="S_N_53" type="standard_car" route="S_N" depart="366" departLane="random" departSpeed="10" />
<vehicle id="S_E_54" type="standard_car" route="S_E" depart="383" departLane="random" departSpeed="10" />
<vehicle id="N_S_55" type="standard_car" route="N_S" depart="383" departLane="random" departSpeed="10" />
<vehicle id="E_W_56" type="standard_car" route="E_W" depart="384" departLane="random" departSpeed="10" />
<vehicle id="W_N_57" type="standard_car" route="W_N" depart="384" departLane="random" departSpeed="10" />
<vehicle id="S_E_58" type="standard_car" route="S_E" depart="396" departLane="random" departSpeed="10" />
<vehicle id="S_N_59" type="standard_car" route="S_N" depart="401" departLane="random" departSpeed="10" />
<vehicle id="W_N_60" type="standard_car" route="W_N" depart="401" departLane="random" departSpeed="10" />
<vehicle id="N_S_61" type="standard_car" route="N_S" depart="406" departLane="random" departSpeed="10" />
<vehicle id="N_S_62" type="standard_car" route="N_S" depart="408" departLane="random" departSpeed="10" />
<vehicle id="N_S_63" type="standard_car" route="N_S" depart="418" departLane="random" departSpeed="10" />
<vehicle id="N_S_64" type="standard_car" route="N_S" depart="426" departLane="random" departSpeed="10" />
<vehicle id="W_S_65" type="standard_car" route="W_S" depart="427" departLane="random" departSpeed="10" />
<vehicle id="E_N_66" type="standard_car" route="E_N" depart="432" departLane="random" departSpeed="10" />
<vehicle id="W_E_67" type="standard_car" route="W_E" depart="435" departLane="random" departSpeed="10" />
<vehicle id="W_N_68" type="standard_car" route="W_N" depart="437" departLane="random" departSpeed="10" />
<vehicle id="S_N_69" type="standard_car" route="S_N" depart="439" departLane="random" departSpeed="10" />
<vehicle id="E_S_70" type="standard_car" route="E_S" depart="447" departLane="random" departSpeed="10" />
<vehicle id="W_E_71" type="standard_car" route="W_E" depart="451" departLane="random" departSpeed="10" />
<vehicle id="S_N_72" type="standard_car" route="S_N" depart="453" departLane="random" departSpeed="10" />
<vehicle id="E_S_73" type="standard_car" route="E_S" depart="458" departLane="random" departSpeed="10" />
<vehicle id="E_W_74" type="standard_car" route="E_W" depart="461" departLane="random" departSpeed="10" />
<vehicle id="S_N_75" type="standard_car" route="S_N" depart="462" departLane="random" departSpeed="10" />
<vehicle id="W_E_76" type="standard_car" route="W_E" depart="464" departLane="random" departSpeed="10" />
<vehicle id="E_W_77" type="standard_car" route="E_W" depart="466" departLane="random" departSpeed="10" />
<vehicle id="E_N_78" type="standard_car" route="E_N" depart="468" departLane="random" departSpeed="10" />
<vehicle id="S_N_79" type="standard_car" route="S_N" depart="472" departLane="random" departSpeed="10" />
<vehicle id="N_S_80" type="standard_car" route="N_S" depart="474" departLane="random" departSpeed="10" />
<vehicle id="S_N_81" type="standard_car" route="S_N" depart="476" departLane="random" departSpeed="10" />
<vehicle id="E_W_82" type="standard_car" route="E_W" depart="482" departLane="random" departSpeed="10" />
<vehicle id="S_N_83" type="standard_car" route="S_N" depart="485" departLane="random" departSpeed="10" />
<vehicle id="N_S_84" type="standard_car" route="N_S" depart="487" departLane="random" departSpeed="10" />
<vehicle id="N_W_85" type="standard_car" route="N_W" depart="490" departLane="random" departSpeed="10" />
<vehicle id="E_W_86" type="standard_car" route="E_W" depart="492" departLane="random" departSpeed="10" />
<vehicle id="N_S_87" type="standard_car" route="N_S" depart="494" departLane="random" departSpeed="10" />
<vehicle id="S_N_88" type="standard_car" route="S_N" depart="494" departLane="random" departSpeed="10" />
<vehicle id="E_N_89" type="standard_car" route="E_N" depart="496" departLane="random" departSpeed="10" />
<vehicle id="W_E_90" type="standard_car" route="W_E" depart="498" departLane="random" departSpeed="10" />
<vehicle id="E_W_91" type="standard_car" route="E_W" depart="498" departLane="random" departSpeed="10" />
<vehicle id="W_E_92" type="standard_car" route="W_E" depart="498" departLane="random" departSpeed="10" />
<vehicle id="S_E_93" type="standard_car" route="S_E" depart="503" departLane="random" departSpeed="10" />
<vehicle id="S_E_94" type="standard_car" route="S_E" depart="507" departLane="random" departSpeed="10" />
<vehicle id="W_E_95" type="standard_car" route="W_E" depart="508" departLane="random" departSpeed="10" />
<vehicle id="S_W_96" type="standard_car" route="S_W" depart="513" departLane="random" departSpeed="10" />
<vehicle id="N_S_97" type="standard_car" route="N_S" depart="515" departLane="random" departSpeed="10" />
<vehicle id="W_E_98" type="standard_car" route="W_E" depart="516" departLane="random" departSpeed="10" />
<vehicle id="N_E_99" type="standard_car" route="N_E" depart="517" departLane="random" departSpeed="10" />
<vehicle id="E_W_100" type="standard_car" route="E_W" depart="521" departLane="random" departSpeed="10" />
<vehicle id="S_N_101" type="standard_car" route="S_N" depart="523" departLane="random" departSpeed="10" />
<vehicle id="W_E_102" type="standard_car" route="W_E" depart="524" departLane="random" departSpeed="10" />
<vehicle id="W_E_103" type="standard_car" route="W_E" depart="525" departLane="random" departSpeed="10" />
<vehicle id="N_W_104" type="standard_car" route="N_W" depart="533" departLane="random" departSpeed="10" />
<vehicle id="W_E_105" type="standard_car" route="W_E" depart="534" departLane="random" departSpeed="10" />
<vehicle id="E_W_106" type="standard_car" route="E_W" depart="535" departLane="random" departSpeed="10" />
<vehicle id="N_S_107" type="standard_car" route="N_S" depart="539" departLane="random" departSpeed="10" />
<vehicle id="E_S_108" type="standard_car" route="E_S" depart="543" departLane="random" departSpeed="10" />
<vehicle id="N_S_109" type="standard_car" route="N_S" depart="544" departLane="random" departSpeed="10" />
<vehicle id="W_E_110" type="standard_car" route="W_E" depart="545" departLane="random" departSpeed="10" />
<vehicle id="E_W_111" type="standard_car" route="E_W" depart="546" departLane="random" departSpeed="10" />
<vehicle id="E_W_112" type="standard_car" route="E_W" depart="550" departLane="random" departSpeed="10" />
<vehicle id="W_N_113" type="standard_car" route="W_N" depart="553" departLane="random" departSpeed="10" />
<vehicle id="W_E_114" type="standard_car" route="W_E" depart="560" departLane="random" departSpeed="10" />
<vehicle id="W_S_115" type="standard_car" route="W_S" depart="561" departLane="random" departSpeed="10" />
<vehicle id="N_S_116" type="standard_car" route="N_S" depart="563" departLane="random" departSpeed="10" />
<vehicle id="N_S_117" type="standard_car" route="N_S" depart="569" departLane="random" departSpeed="10" />
<vehicle id="W_E_118" type="standard_car" route="W_E" depart="571" departLane="random" departSpeed="10" />
<vehicle id="N_S_119" type="standard_car" route="N_S" depart="572" departLane="random" departSpeed="10" />
<vehicle id="S_W_120" type="standard_car" route="S_W" depart="575" departLane="random" departSpeed="10" />
<vehicle id="S_N_121" type="standard_car" route="S_N" depart="578" departLane="random" departSpeed="10" />
<vehicle id="E_W_122" type="standard_car" route="E_W" depart="578" departLane="random" departSpeed="10" />
<vehicle id="N_S_123" type="standard_car" route="N_S" depart="579" departLane="random" departSpeed="10" />
<vehicle id="N_E_124" type="standard_car" route="N_E" depart="582" departLane="random" departSpeed="10" />
<vehicle id="S_W_125" type="standard_car" route="S_W" depart="585" departLane="random" departSpeed="10" />
<vehicle id="E_W_126" type="standard_car" route="E_W" depart="585" departLane="random" departSpeed="10" />
<vehicle id="S_N_127" type="standard_car" route="S_N" depart="588" departLane="random" departSpeed="10" />
<vehicle id="W_E_128" type="standard_car" route="W_E" depart="588" departLane="random" departSpeed="10" />
<vehicle id="E_W_129" type="standard_car" route="E_W" depart="589" departLane="random" departSpeed="10" />
<vehicle id="N_S_130" type="standard_car" route="N_S" depart="590" departLane="random" departSpeed="10" />
<vehicle id="S_N_131" type="standard_car" route="S_N" depart="591" departLane="random" departSpeed="10" />
<vehicle id="E_W_132" type="standard_car" route="E_W" depart="593" departLane="random" departSpeed="10" />
<vehicle id="N_S_133" type="standard_car" route="N_S" depart="595" departLane="random" departSpeed="10" />
<vehicle id="N_S_134" type="standard_car" route="N_S" depart="595" departLane="random" departSpeed="10" />
<vehicle id="N_S_135" type="standard_car" route="N_S" depart="596" departLane="random" departSpeed="10" />
<vehicle id="E_W_136" type="standard_car" route="E_W" depart="598" departLane="random" departSpeed="10" />
<vehicle id="S_N_137" type="standard_car" route="S_N" depart="601" departLane="random" departSpeed="10" />
<vehicle id="S_N_138" type="standard_car" route="S_N" depart="607" departLane="random" departSpeed="10" />
<vehicle id="E_W_139" type="standard_car" route="E_W" depart="608" departLane="random" departSpeed="10" />
<vehicle id="S_N_140" type="standard_car" route="S_N" depart="614" departLane="random" departSpeed="10" />
<vehicle id="S_N_141" type="standard_car" route="S_N" depart="615" departLane="random" departSpeed="10" />
<vehicle id="E_S_142" type="standard_car" route="E_S" depart="616" departLane="random" departSpeed="10" />
<vehicle id="W_S_143" type="standard_car" route="W_S" depart="617" departLane="random" departSpeed="10" />
<vehicle id="W_E_144" type="standard_car" route="W_E" depart="619" departLane="random" departSpeed="10" />
<vehicle id="W_N_145" type="standard_car" route="W_N" depart="620" departLane="random" departSpeed="10" />
<vehicle id="S_N_146" type="standard_car" route="S_N" depart="632" departLane="random" departSpeed="10" />
<vehicle id="E_W_147" type="standard_car" route="E_W" depart="633" departLane="random" departSpeed="10" />
<vehicle id="W_E_148" type="standard_car" route="W_E" depart="638" departLane="random" departSpeed="10" />
<vehicle id="E_W_149" type="standard_car" route="E_W" depart="639" departLane="random" departSpeed="10" />
<vehicle id="S_N_150" type="standard_car" route="S_N" depart="639" departLane="random" departSpeed="10" />
<vehicle id="N_S_151" type="standard_car" route="N_S" depart="641" departLane="random" departSpeed="10" />
<vehicle id="W_E_152" type="standard_car" route="W_E" depart="644" departLane="random" departSpeed="10" />
<vehicle id="E_N_153" type="standard_car" route="E_N" depart="645" departLane="random" departSpeed="10" />
<vehicle id="S_E_154" type="standard_car" route="S_E" depart="646" departLane="random" departSpeed="10" />
<vehicle id="N_S_155" type="standard_car" route="N_S" depart="646" departLane="random" departSpeed="10" />
<vehicle id="E_W_156" type="standard_car" route="E_W" depart="647" departLane="random" departSpeed="10" />
<vehicle id="S_N_157" type="standard_car" route="S_N" depart="647" departLane="random" departSpeed="10" />
<vehicle id="S_N_158" type="standard_car" route="S_N" depart="648" departLane="random" departSpeed="10" />
<vehicle id="W_N_159" type="standard_car" route="W_N" depart="649" departLane="random" departSpeed="10" />
<vehicle id="W_E_160" type="standard_car" route="W_E" depart="650" departLane="random" departSpeed="10" />
<vehicle id="S_N_161" type="standard_car" route="S_N" depart="655" departLane="random" departSpeed="10" />
<vehicle id="N_E_162" type="standard_car" route="N_E" depart="659" departLane="random" departSpeed="10" />
<vehicle id="E_S_163" type="standard_car" route="E_S" depart="665" departLane="random" departSpeed="10" />
<vehicle id="E_W_164" type="standard_car" route="E_W" depart="669" departLane="random" departSpeed="10" />
<vehicle id="W_E_165" type="standard_car" route="W_E" depart="672" departLane="random" departSpeed="10" />
<vehicle id="N_S_166" type="standard_car" route="N_S" depart="673" departLane="random" departSpeed="10" />
<vehicle id="N_S_167" type="standard_car" route="N_S" depart="676" departLane="random" departSpeed="10" />
<vehicle id="E_W_168" type="standard_car" route="E_W" depart="677" departLane="random" departSpeed="10" />
<vehicle id="E_W_169" type="standard_car" route="E_W" depart="678" departLane="random" departSpeed="10" />
<vehicle id="E_W_170" type="standard_car" route="E_W" depart="679" departLane="random" departSpeed="10" />
<vehicle id="S_W_171" type="standard_car" route="S_W" depart="680" departLane="random" departSpeed="10" />
<vehicle id="E_W_172" type="standard_car" route="E_W" depart="682" departLane="random" departSpeed="10" />
<vehicle id="N_S_173" type="standard_car" route="N_S" depart="685" departLane="random" departSpeed="10" />
<vehicle id="S_N_174" type="standard_car" route="S_N" depart="686" departLane="random" departSpeed="10" />
<vehicle id="S_N_175" type="standard_car" route="S_N" depart="686" departLane="random" departSpeed="10" />
<vehicle id="S_N_176" type="standard_car" route="S_N" depart="687" departLane="random" departSpeed="10" />
<vehicle id="N_S_177" type="standard_car" route="N_S" depart="687" departLane="random" departSpeed="10" />
<vehicle id="N_S_178" type="standard_car" route="N_S" depart="698" departLane="random" departSpeed="10" />
<vehicle id="E_W_179" type="standard_car" route="E_W" depart="698" departLane="random" departSpeed="10" />
<vehicle id="S_N_180" type="standard_car" route="S_N" depart="699" departLane="random" departSpeed="10" />
<vehicle id="N_W_181" type="standard_car" route="N_W" depart="700" departLane="random" departSpeed="10" />
<vehicle id="W_E_182" type="standard_car" route="W_E" depart="702" departLane="random" departSpeed="10" />
<vehicle id="E_S_183" type="standard_car" route="E_S" depart="703" departLane="random" departSpeed="10" />
<vehicle id="E_W_184" type="standard_car" route="E_W" depart="705" departLane="random" departSpeed="10" />
<vehicle id="S_N_185" type="standard_car" route="S_N" depart="706" departLane="random" departSpeed="10" />
<vehicle id="W_N_186" type="standard_car" route="W_N" depart="711" departLane="random" departSpeed="10" />
<vehicle id="E_N_187" type="standard_car" route="E_N" depart="717" departLane="random" departSpeed="10" />
<vehicle id="S_N_188" type="standard_car" route="S_N" depart="718" departLane="random" departSpeed="10" />
<vehicle id="N_E_189" type="standard_car" route="N_E" depart="721" departLane="random" departSpeed="10" />
<vehicle id="W_S_190" type="standard_car" route="W_S" depart="721" departLane="random" departSpeed="10" />
<vehicle id="W_E_191" type="standard_car" route="W_E" depart="723" departLane="random" departSpeed="10" />
<vehicle id="E_W_192" type="standard_car" route="E_W" depart="725" departLane="random" departSpeed="10" />
<vehicle id="W_E_193" type="standard_car" route="W_E" depart="727" departLane="random" departSpeed="10" />
<vehicle id="W_E_194" type="standard_car" route="W_E" depart="727" departLane="random" departSpeed="10" />
<vehicle id="W_E_195" type="standard_car" route="W_E" depart="727" departLane="random" departSpeed="10" />
<vehicle id="S_N_196" type="standard_car" route="S_N" depart="730" departLane="random" departSpeed="10" />
<vehicle id="emergency_197" type="emergency_veh" route="N_S" depart="732" departLane="random" departSpeed="20" />
<vehicle id="E_W_198" type="standard_car" route="E_W" depart="734" departLane="random" departSpeed="10" />
<vehicle id="W_E_199" type="standard_car" route="W_E" depart="736" departLane="random" departSpeed="10" />
<vehicle id="E_W_200" type="standard_car" route="E_W" depart="736" departLane="random" departSpeed="10" />
<vehicle id="W_N_201" type="standard_car" route="W_N" depart="737" departLane="random" departSpeed="10" />
<vehicle id="W_E_202" type="standard_car" route="W_E" depart="738" departLane="random" departSpeed="10" />
<vehicle id="N_S_203" type="standard_car" route="N_S" depart="739" departLane="random" departSpeed="10" />
<vehicle id="W_S_204" type="standard_car" route="W_S" depart="745" departLane="random" departSpeed="10" />
<vehicle id="W_E_205" type="standard_car" route="W_E" depart="746" departLane="random" departSpeed="10" />
<vehicle id="N_S_206" type="standard_car" route="N_S" depart="746" departLane="random" departSpeed="10" />
<vehicle id="N_E_207" type="standard_car" route="N_E" depart="747" departLane="random" departSpeed="10" />
<vehicle id="W_E_208" type="standard_car" route="W_E" depart="747" departLane="random" departSpeed="10" />
<vehicle id="E_W_209" type="standard_car" route="E_W" depart="747" departLane="random" departSpeed="10" />
<vehicle id="S_N_210" type="standard_car" route="S_N" depart="750" departLane="random" departSpeed="10" />
<vehicle id="N_E_211" type="standard_car" route="N_E" depart="753" departLane="random" departSpeed="10" />
<vehicle id="S_N_212" type="standard_car" route="S_N" depart="753" departLane="random" departSpeed="10" />
<vehicle id="W_E_213" type="standard_car" route="W_E" depart="757" departLane="random" departSpeed="10" />
<vehicle id="N_S_214" type="standard_car" route="N_S" depart="757" departLane="random" departSpeed="10" />
<vehicle id="S_W_215" type="standard_car" route="S_W" depart="757" departLane="random" departSpeed="10" />
<vehicle id="S_N_216" type="standard_car" route="S_N" depart="758" departLane="random" departSpeed="10" />
<vehicle id="S_N_217" type="standard_car" route="S_N" depart="761" departLane="random" departSpeed="10" />
<vehicle id="N_S_218" type="standard_car" route="N_S" depart="767" departLane="random" departSpeed="10" />
<vehicle id="W_E_219" type="standard_car" route="W_E" depart="770" departLane="random" departSpeed="10" />
<vehicle id="S_W_220" type="standard_car" route="S_W" depart="777" departLane="random" departSpeed="10" />
<vehicle id="S_N_221" type="standard_car" route="S_N" depart="778" departLane="random" departSpeed="10" />
<vehicle id="E_W_222" type="standard_car" route="E_W" depart="778" departLane="random" departSpeed="10" />
<vehicle id="E_W_223" type="standard_car" route="E_W" depart="784" departLane="random" departSpeed="10" />
<vehicle id="E_W_224" type="standard_car" route="E_W" depart="787" departLane="random" departSpeed="10" />
<vehicle id="S_N_225" type="standard_car" route="S_N" depart="791" departLane="random" departSpeed="10" />
<vehicle id="E_W_226" type="standard_car" route="E_W" depart="798" departLane="random" departSpeed="10" />
<vehicle id="W_S_227" type="standard_car" route="W_S" depart="799" departLane="random" departSpeed="10" />
<vehicle id="N_S_228" type="standard_car" route="N_S" depart="801" departLane="random" departSpeed="10" />
<vehicle id="W_N_229" type="standard_car" route="W_N" depart="801" departLane="random" departSpeed="10" />
<vehicle id="S_N_230" type="standard_car" route="S_N" depart="805" departLane="random" departSpeed="10" />
<vehicle id="N_S_231" type="standard_car" route="N_S" depart="808" departLane="random" departSpeed="10" />
<vehicle id="E_W_232" type="standard_car" route="E_W" depart="809" departLane="random" departSpeed="10" />
<vehicle id="W_E_233" type="standard_car" route="W_E" depart="812" departLane="random" departSpeed="10" />
<vehicle id="W_E_234" type="standard_car" route="W_E" depart="814" departLane="random" departSpeed="10" />
<vehicle id="W_E_235" type="standard_car" route="W_E" depart="816" departLane="random" departSpeed="10" />
<vehicle id="N_S_236" type="standard_car" route="N_S" depart="820" departLane="random" departSpeed="10" />
<vehicle id="N_E_237" type="standard_car" route="N_E" depart="822" departLane="random" departSpeed="10" />
<vehicle id="N_S_238" type="standard_car" route="N_S" depart="835" departLane="random" departSpeed="10" />
<vehicle id="W_E_239" type="standard_car" route="W_E" depart="835" departLane="random" departSpeed="10" />
<vehicle id="S_N_240" type="standard_car" route="S_N" depart="838" departLane="random" departSpeed="10" />
<vehicle id="N_S_241" type="standard_car" route="N_S" depart="840" departLane="random" departSpeed="10" />
<vehicle id="E_W_242" type="standard_car" route="E_W" depart="841" departLane="random" departSpeed="10" />
<vehicle id="S_N_243" type="standard_car" route="S_N" depart="845" departLane="random" departSpeed="10" />
<vehicle id="W_S_244" type="standard_car" route="W_S" depart="848" departLane="random" departSpeed="10" />
<vehicle id="E_W_245" type="standard_car" route="E_W" depart="849" departLane="random" departSpeed="10" />
<vehicle id="N_S_246" type="standard_car" route="N_S" depart="850" departLane="random" departSpeed="10" />
<vehicle id="N_S_247" type="standard_car" route="N_S" depart="850" departLane="random" departSpeed="10" />
<vehicle id="S_N_248" type="standard_car" route="S_N" depart="854" departLane="random" departSpeed="10" />
<vehicle id="W_E_249" type="standard_car" route="W_E" depart="857" departLane="random" departSpeed="10" />
<vehicle id="W_E_250" type="standard_car" route="W_E" depart="867" departLane="random" departSpeed="10" />
<vehicle id="E_W_251" type="standard_car" route="E_W" depart="867" departLane="random" departSpeed="10" />
<vehicle id="W_N_252" type="standard_car" route="W_N" depart="868" departLane="random" departSpeed="10" />
<vehicle id="N_W_253" type="standard_car" route="N_W" depart="869" departLane="random" departSpeed="10" />
<vehicle id="S_N_254" type="standard_car" route="S_N" depart="872" departLane="random" departSpeed="10" />
<vehicle id="S_N_255" type="standard_car" route="S_N" depart="873" departLane="random" departSpeed="10" />
<vehicle id="W_E_256" type="standard_car" route="W_E" depart="877" departLane="random" departSpeed="10" />
<vehicle id="E_W_257" type="standard_car" route="E_W" depart="877" departLane="random" departSpeed="10" />
<vehicle id="W_N_258" type="standard_car" route="W_N" depart="878" departLane="random" departSpeed="10" />
<vehicle id="S_N_259" type="standard_car" route="S_N" depart="878" departLane="random" departSpeed="10" />
<vehicle id="W_E_260" type="standard_car" route="W_E" depart="880" departLane="random" departSpeed="10" />
<vehicle id="W_E_261" type="standard_car" route="W_E" depart="881" departLane="random" departSpeed="10" />
<vehicle id="W_N_262" type="standard_car" route="W_N" depart="884" departLane="random" departSpeed="10" />
<vehicle id="E_S_263" type="standard_car" route="E_S" depart="886" departLane="random" departSpeed="10" />
<vehicle id="N_S_264" type="standard_car" route="N_S" depart="886" departLane="random" departSpeed="10" />
<vehicle id="S_W_265" type="standard_car" route="S_W" depart="888" departLane="random" departSpeed="10" />
<vehicle id="W_S_266" type="standard_car" route="W_S" depart="889" departLane="random" departSpeed="10" />
<vehicle id="E_W_267" type="standard_car" route="E_W" depart="891" departLane="random" departSpeed="10" />
<vehicle id="S_N_268" type="standard_car" route="S_N" depart="892" departLane="random" departSpeed="10" />
<vehicle id="N_S_269" type="standard_car" route="N_S" depart="894" departLane="random" departSpeed="10" />
<vehicle id="W_E_270" type="standard_car" route="W_E" depart="898" departLane="random" departSpeed="10" />
<vehicle id="N_S_271" type="standard_car" route="N_S" depart="898" departLane="random" departSpeed="10" />
<vehicle id="S_N_272" type="standard_car" route="S_N" depart="899" departLane="random" departSpeed="10" />
<vehicle id="W_S_273" type="standard_car" route="W_S" depart="904" departLane="random" departSpeed="10" />
<vehicle id="N_E_274" type="standard_car" route="N_E" depart="910" departLane="random" departSpeed="10" />